/*--------------------------------*- C++ -*----------------------------------*\
| =========                 |                                                 |
| \\      /  F ield         | OpenFOAM: The Open Source CFD Toolbox           |
|  \\    /   O peration     | Version:  v1812                                 |
|   \\  /    A nd           | Web:      www.OpenFOAM.com                      |
|    \\/     M anipulation  |                                                 |
\*---------------------------------------------------------------------------*/
FoamFile
{
    version     2.0;
    format      ascii;
    class       dictionary;
    object      blockMeshDict;
}
// * * * * * * * * * * * * * * * * * * * * * * * * * * * * * * * * * * * * * //

scale   1;

vertices
(
    (0 0 -0.05)
    (1 0 -0.05)
    (1 0.5 -0.05)
    (0 0.5 -0.05)
    (2 0.5 -0.05)
    (2 1 -0.05)
    (1 1 -0.05)
    (2.05 0.5 -0.05)
    (3.05 0.5 -0.05)
    (3.05 1 -0.05)
    (2.05 1 -0.05)
    (2 0 -0.05)
    (2.05 0 -0.05)
    (3.05 0 -0.05)

    (0 0 0.05)
    (1 0 0.05)
    (1 0.5 0.05)
    (0 0.5 0.05)
    (2 0.5 0.05)
    (2 1 0.05)
    (1 1 0.05)
    (2.05 0.5 0.05)
    (3.05 0.5 0.05)
    (3.05 1 0.05)
    (2.05 1 0.05)
    (2 0 0.05)
    (2.05 0 0.05)
    (3.05 0 0.05)

);

blocks
(
    hex (0 1 2 3 14 15 16 17) (100 50 1) simpleGrading (1 1 1)
    hex (2 4 5 6 16 18 19 20) (100 50 1) simpleGrading (1 1 1)
    hex (4 7 10 5 18 21 24 19) (5 50 1) simpleGrading (1 1 1)
    hex (7 8 9 10 21 22 23 24) (100 50 1) simpleGrading (1 1 1)
    hex (1 11 4 2 15 25 18 16) (100 50 1) simpleGrading (1 1 1)
    hex (12 13 8 7 26 27 22 21) (100 50 1) simpleGrading (1 1 1)

);

edges
(
);

boundary
(
    inlet
    {
        type patch;
        faces
        (
            (0 3 17 14)
        );
    }
    outlet
    {
        type patch;
        faces
        (
            (8 13 27 22)
        );
    }
    bottom
    {
        type symmetryPlane;
        faces
        (
            (1 0 15 14)
            (1 11 25 15)
            (12 13 27 26) 
        );
    }
    topWall
    {
        type wall;
        faces
        (
            (6 5 19 20)
            (5 10 24 19)
            (10 9 23 24) 
	    (9 8 22 23)
        );
    }
    obstacle
    {
        type wall;
        faces
        (
            (3 2 16 17)
            (2 6 20 16)
            (11 4 18 25)
            (4 7 21 18)
            (12 7 21 26) 
        );
    }
);

mergePatchPairs
(
);

// ************************************************************************* //
